
  EPA STORM WATER MANAGEMENT MODEL - VERSION 5.2 (Build 5.2.3)
  ------------------------------------------------------------

  
  *************
  Element Count
  *************
  Number of rain gages ...... 1
  Number of subcatchments ... 66
  Number of nodes ........... 36
  Number of links ........... 35
  Number of pollutants ...... 0
  Number of land uses ....... 0
  
  
  ****************
  Raingage Summary
  ****************
                                                      Data       Recording
  Name                 Data Source                    Type       Interval 
  ------------------------------------------------------------------------
  RG1                  100yr2hr                       CUMULATIVE   5 min.
  
  
  ********************
  Subcatchment Summary
  ********************
  Name                       Area     Width   %Imperv    %Slope Rain Gage            Outlet              
  -----------------------------------------------------------------------------------------------------------
  ID1                    22524.07     99.94      0.00    0.0500 RG1                  J2                  
  ID10                   18003.45     99.92      0.00    0.0050 RG1                  J32                 
  ID11                   18002.92     99.92      0.00    0.0050 RG1                  J33                 
  ID12                   23112.24    100.41      0.00    0.0050 RG1                  J34                 
  ID13                   19818.01    284.25      0.00    0.0050 RG1                  J6                  
  ID14                   21026.90    201.41      0.00    0.0200 RG1                  J8                  
  ID15                   20713.03     99.95      0.00    0.0200 RG1                  J9                  
  ID16                   23772.45     99.95      0.00    0.0200 RG1                  J10                 
  ID17                   16535.55    218.06      0.00    0.0500 RG1                  J10                 
  ID18                   17506.67    224.03      0.00    0.0200 RG1                  J9                  
  ID19                   18514.24    102.84      0.00    0.0200 RG1                  J7                  
  ID2                    19668.66    279.20      0.00    0.0370 RG1                  J4                  
  ID20                   18514.64    102.84      0.00    0.0200 RG1                  J6                  
  ID21                   18515.02    102.84      0.00    0.0200 RG1                  J5                  
  ID22                   18515.55    102.84      0.00    0.0200 RG1                  J4                  
  ID23                   18516.14    102.84      0.00    0.0200 RG1                  J3                  
  ID24                   17514.00    224.23      0.00    0.0200 RG1                  J1                  
  ID25                   23239.75    108.39      0.00    0.0300 RG1                  J28                 
  ID26                   18945.10    156.15      0.00    0.0200 RG1                  J11                 
  ID27                   18251.32    107.56      0.00    0.0300 RG1                  J29                 
  ID28                   31084.41    364.42      0.00    0.0200 RG1                  J37                 
  ID29                   25257.38    399.28      0.00    0.0020 RG1                  J29                 
  ID3                    17251.55     84.83      0.00    0.0370 RG1                  J36                 
  ID30                   19311.17     99.93      0.00    0.0020 RG1                  J17                 
  ID31                   17783.63     99.94      0.00    0.0020 RG1                  J16                 
  ID32                   17406.07    103.94      0.00    0.0020 RG1                  J15                 
  ID33                   17997.48     99.95      0.00    0.0200 RG1                  J14                 
  ID34                   17997.62     99.94      0.00    0.0200 RG1                  J15                 
  ID35                   17998.65     99.93      0.00    0.0200 RG1                  J16                 
  ID36                   17999.64     99.93      0.00    0.0200 RG1                  J17                 
  ID37                   19254.86    135.83      0.00    0.0200 RG1                  J18                 
  ID38                   20271.62    132.92      0.00    0.0200 RG1                  J19                 
  ID39                   31499.97     49.38      0.00    0.0500 RG1                  J37                 
  ID4                    16963.09     64.32      0.00    0.0370 RG1                  J36                 
  ID40                   17243.73    105.01      0.00    0.0500 RG1                  J37                 
  ID41                   17978.26     99.95      0.00    0.0500 RG1                  J12                 
  ID42                   17993.24     99.95      0.00    0.0500 RG1                  J11                 
  ID43                   18007.73     99.92      0.00    0.0680 RG1                  J30                 
  ID44                   18007.84     99.92      0.00    0.0680 RG1                  J26                 
  ID45                   18007.91     99.92      0.00    0.0500 RG1                  J26                 
  ID46                   18008.00     99.92      0.00    0.0300 RG1                  J25                 
  ID47                   17913.56    100.18      0.00    0.0300 RG1                  J23                 
  ID48                   16798.23     99.81      0.00    0.0020 RG1                  J23                 
  ID49                   17698.34     99.92      0.00    0.0020 RG1                  J24                 
  ID5                    16766.77    109.02      0.00    0.0370 RG1                  J36                 
  ID50                   17997.74     99.92      0.00    0.0020 RG1                  J25                 
  ID51                   20319.50    277.74      0.00    0.0020 RG1                  J27                 
  ID52                   18793.83    287.56      0.00    0.0050 RG1                  J27                 
  ID53                   18132.64    131.90      0.00    0.0020 RG1                  J14                 
  ID54                   17266.30    100.83      0.00    0.0020 RG1                  J22                 
  ID55                   17690.37    105.83      0.00    0.0300 RG1                  J22                 
  ID56                   16240.73    109.28      0.00    0.0300 RG1                  J21                 
  ID57                   24498.32    226.58      0.00    0.0200 RG1                  J1                  
  ID58                   17044.77    100.80      0.00    0.0370 RG1                  J35                 
  ID59                   19749.04    227.01      0.00    0.0050 RG1                  J36                 
  ID6                    18007.83     99.92      0.00    0.0680 RG1                  J33                 
  ID60                   18513.94    102.84      0.00    0.0200 RG1                  J8                  
  ID61                   18516.97    102.84      0.00    0.0200 RG1                  J2                  
  ID62                   18004.03     99.92      0.00    0.0050 RG1                  J30                 
  ID63                   21378.62    100.04      0.00    0.0020 RG1                  J18                 
  ID64                   18403.96    109.88      0.00    0.0200 RG1                  J37                 
  ID65                   17966.75    100.06      0.00    0.0680 RG1                  J34                 
  ID66                   18008.01     99.92      0.00    0.0300 RG1                  J24                 
  ID7                    18014.46     99.95      0.00    0.0680 RG1                  J32                 
  ID8                    18014.05     99.95      0.00    0.0680 RG1                  J31                 
  ID9                    18010.36     99.95      0.00    0.0050 RG1                  J31                 
  
  
  ************
  Node Summary
  ************
                                           Invert      Max.    Ponded    External
  Name                 Type                 Elev.     Depth      Area    Inflow  
  -------------------------------------------------------------------------------
  J1                   JUNCTION           1029.85     10.00       0.0
  J2                   JUNCTION           1028.23     10.00       0.0
  J3                   JUNCTION           1026.51     10.00       0.0
  J4                   JUNCTION           1024.45     10.00       0.0
  J5                   JUNCTION           1023.22     10.00       0.0
  J6                   JUNCTION           1020.47     10.00       0.0
  J7                   JUNCTION           1018.36     10.00       0.0
  J8                   JUNCTION           1016.15     10.00       0.0
  J9                   JUNCTION           1012.61     10.00       0.0
  J10                  JUNCTION           1010.47     10.00       0.0
  J11                  JUNCTION           1008.60     10.00       0.0
  J12                  JUNCTION           1006.04     10.00       0.0
  J14                  JUNCTION           1020.30     10.00       0.0
  J15                  JUNCTION           1015.89     10.00       0.0
  J16                  JUNCTION           1013.46     10.00       0.0
  J17                  JUNCTION           1010.97     10.00       0.0
  J18                  JUNCTION           1008.77     10.00       0.0
  J19                  JUNCTION           1006.58     10.00       0.0
  J21                  JUNCTION           1027.29     10.00       0.0
  J22                  JUNCTION           1025.42     10.00       0.0
  J23                  JUNCTION           1023.27     10.00       0.0
  J24                  JUNCTION           1020.43     10.00       0.0
  J25                  JUNCTION           1018.10     10.00       0.0
  J26                  JUNCTION           1014.86     10.00       0.0
  J27                  JUNCTION           1013.25     10.00       0.0
  J28                  JUNCTION           1011.51     10.00       0.0
  J29                  JUNCTION           1009.26     10.00       0.0
  J30                  JUNCTION           1017.02     10.00       0.0
  J31                  JUNCTION           1019.38     10.00       0.0
  J32                  JUNCTION           1021.34     10.00       0.0
  J33                  JUNCTION           1023.40     10.00       0.0
  J34                  JUNCTION           1025.24     10.00       0.0
  J35                  JUNCTION           1030.84     10.00       0.0
  J36                  JUNCTION           1028.47     10.00       0.0
  J37                  JUNCTION           1004.07     10.00       0.0
  Outfall              OUTFALL            1000.00     10.00       0.0
  
  
  ************
  Link Summary
  ************
  Name             From Node        To Node          Type            Length    %Slope Roughness
  ---------------------------------------------------------------------------------------------
  C1               J1               J2               CONDUIT           81.0    2.0004    0.2000
  C2               J2               J3               CONDUIT           85.9    2.0004    0.2000
  C3               J3               J4               CONDUIT          103.1    2.0004    0.2000
  C4               J4               J5               CONDUIT           61.5    2.0004    0.2000
  C5               J5               J6               CONDUIT          137.3    2.0004    0.2000
  C6               J6               J7               CONDUIT          105.6    2.0004    0.2000
  C7               J7               J8               CONDUIT          110.4    2.0004    0.2000
  C8               J8               J9               CONDUIT          176.9    2.0004    0.2000
  C9               J9               J10              CONDUIT          107.5    2.0004    0.2000
  C10              J10              J11              CONDUIT           93.4    2.0004    0.2000
  C11              J11              J12              CONDUIT          128.1    2.0004    0.2000
  C12              J12              J37              CONDUIT           98.4    2.0004    0.2000
  C13              J35              J36              CONDUIT          118.4    2.0004    0.2000
  C14              J36              J5               CONDUIT          201.0    2.6126    0.2000
  C15              J34              J33              CONDUIT           92.0    2.0004    0.2000
  C16              J33              J32              CONDUIT          103.1    2.0004    0.2000
  C17              J32              J31              CONDUIT           98.0    2.0004    0.2000
  C18              J31              J30              CONDUIT          118.0    2.0004    0.2000
  C19              J30              J26              CONDUIT          108.2    2.0004    0.2000
  C20              J26              J27              CONDUIT           80.4    2.0004    0.2000
  C21              J27              J28              CONDUIT           87.0    2.0004    0.2000
  C22              J28              J29              CONDUIT          112.4    2.0004    0.2000
  C23              J29              J19              CONDUIT          134.0    2.0004    0.2000
  C24              J19              J37              CONDUIT          125.7    2.0004    0.2000
  C25              J14              J15              CONDUIT          220.3    2.0004    0.2000
  C26              J15              J16              CONDUIT          121.6    2.0004    0.2000
  C27              J16              J17              CONDUIT          124.7    2.0004    0.2000
  C28              J17              J18              CONDUIT          109.6    2.0004    0.2000
  C29              J18              J19              CONDUIT          109.6    2.0004    0.2000
  C30              J21              J22              CONDUIT           93.9    2.0004    0.2000
  C31              J22              J23              CONDUIT          107.5    2.0004    0.2000
  C32              J23              J24              CONDUIT          141.8    2.0004    0.2000
  C33              J24              J25              CONDUIT          116.6    2.0004    0.2000
  C34              J25              J26              CONDUIT          162.0    2.0004    0.2000
  C36              J37              Outfall          CONDUIT          203.4    2.0004    0.0110
  
  
  *********************
  Cross Section Summary
  *********************
                                        Full     Full     Hyd.     Max.   No. of     Full
  Conduit          Shape               Depth     Area     Rad.    Width  Barrels     Flow
  ---------------------------------------------------------------------------------------
  C1               LT_StreetHalf        0.56    15.68     0.27    56.00        1     6.94
  C2               LT_StreetHalf        0.56    15.68     0.27    56.00        1     6.94
  C3               LT_StreetHalf        0.56    15.68     0.27    56.00        1     6.94
  C4               LT_StreetHalf        0.56    15.68     0.27    56.00        1     6.94
  C5               LT_StreetHalf        0.56    15.68     0.27    56.00        1     6.94
  C6               LT_StreetHalf        0.56    15.68     0.27    56.00        1     6.94
  C7               LT_StreetHalf        0.56    15.68     0.27    56.00        1     6.94
  C8               LT_StreetHalf        0.56    15.68     0.27    56.00        1     6.94
  C9               LT_StreetHalf        0.56    15.68     0.27    56.00        1     6.94
  C10              LT_StreetHalf        0.56    15.68     0.27    56.00        1     6.94
  C11              LT_StreetHalf        0.56    15.68     0.27    56.00        1     6.94
  C12              LT_StreetHalf        0.56    15.68     0.27    56.00        1     6.94
  C13              LT_StreetHalf        0.56    15.68     0.27    56.00        1     6.94
  C14              LT_StreetHalf        0.56    15.68     0.27    56.00        1     7.93
  C15              LT_StreetHalf        0.56    15.68     0.27    56.00        1     6.94
  C16              LT_StreetHalf        0.56    15.68     0.27    56.00        1     6.94
  C17              LT_StreetHalf        0.56    15.68     0.27    56.00        1     6.94
  C18              LT_StreetHalf        0.56    15.68     0.27    56.00        1     6.94
  C19              LT_StreetHalf        0.56    15.68     0.27    56.00        1     6.94
  C20              LT_StreetHalf        0.56    15.68     0.27    56.00        1     6.94
  C21              LT_StreetHalf        0.56    15.68     0.27    56.00        1     6.94
  C22              LT_StreetHalf        0.56    15.68     0.27    56.00        1     6.94
  C23              LT_StreetHalf        0.56    15.68     0.27    56.00        1     6.94
  C24              LT_StreetHalf        0.56    15.68     0.27    56.00        1     6.94
  C25              LT_StreetHalf        0.56    15.68     0.27    56.00        1     6.94
  C26              LT_StreetHalf        0.56    15.68     0.27    56.00        1     6.94
  C27              LT_StreetHalf        0.56    15.68     0.27    56.00        1     6.94
  C28              LT_StreetHalf        0.56    15.68     0.27    56.00        1     6.94
  C29              LT_StreetHalf        0.56    15.68     0.27    56.00        1     6.94
  C30              LT_StreetHalf        0.56    15.68     0.27    56.00        1     6.94
  C31              LT_StreetHalf        0.56    15.68     0.27    56.00        1     6.94
  C32              LT_StreetHalf        0.56    15.68     0.27    56.00        1     6.94
  C33              LT_StreetHalf        0.56    15.68     0.27    56.00        1     6.94
  C34              LT_StreetHalf        0.56    15.68     0.27    56.00        1     6.94
  C36              TRAPEZOIDAL         10.00   150.00     4.64    20.00        1  7967.55
  
  
  **************
  Street Summary
  **************

  Street LT_StreetHalf
  Area:  
              0.0004     0.0016     0.0036     0.0064     0.0100 
              0.0144     0.0196     0.0256     0.0324     0.0400 
              0.0484     0.0576     0.0676     0.0784     0.0900 
              0.1024     0.1156     0.1296     0.1444     0.1600 
              0.1764     0.1936     0.2116     0.2304     0.2500 
              0.2704     0.2916     0.3136     0.3364     0.3600 
              0.3844     0.4096     0.4356     0.4624     0.4900 
              0.5184     0.5476     0.5776     0.6084     0.6400 
              0.6724     0.7056     0.7396     0.7744     0.8100 
              0.8464     0.8836     0.9216     0.9604     1.0000 
  Hrad:  
              0.0200     0.0400     0.0600     0.0800     0.1000 
              0.1200     0.1400     0.1600     0.1800     0.2000 
              0.2200     0.2400     0.2600     0.2800     0.3000 
              0.3200     0.3400     0.3600     0.3800     0.4000 
              0.4200     0.4400     0.4600     0.4800     0.5000 
              0.5200     0.5400     0.5600     0.5800     0.6000 
              0.6200     0.6400     0.6600     0.6800     0.7000 
              0.7200     0.7400     0.7600     0.7800     0.8000 
              0.8200     0.8400     0.8600     0.8800     0.9000 
              0.9200     0.9400     0.9600     0.9800     1.0000 
  Width: 
              0.0200     0.0400     0.0600     0.0800     0.1000 
              0.1200     0.1400     0.1600     0.1800     0.2000 
              0.2200     0.2400     0.2600     0.2800     0.3000 
              0.3200     0.3400     0.3600     0.3800     0.4000 
              0.4200     0.4400     0.4600     0.4800     0.5000 
              0.5200     0.5400     0.5600     0.5800     0.6000 
              0.6200     0.6400     0.6600     0.6800     0.7000 
              0.7200     0.7400     0.7600     0.7800     0.8000 
              0.8200     0.8400     0.8600     0.8800     0.9000 
              0.9200     0.9400     0.9600     0.9800     1.0000 
  
  
  ****************
  Analysis Options
  ****************
  Flow Units ............... CFS
  Process Models:
    Rainfall/Runoff ........ YES
    RDII ................... NO
    Snowmelt ............... NO
    Groundwater ............ NO
    Flow Routing ........... YES
    Ponding Allowed ........ NO
    Water Quality .......... NO
  Infiltration Method ...... MODIFIED_GREEN_AMPT
  Flow Routing Method ...... KINWAVE
  Starting Date ............ 01/01/2000 00:00:00
  Ending Date .............. 01/01/2000 12:00:00
  Antecedent Dry Days ...... 0.0
  Report Time Step ......... 00:05:00
  Wet Time Step ............ 00:05:00
  Dry Time Step ............ 01:00:00
  Routing Time Step ........ 300.00 sec
  
  
  *********************
  Control Actions Taken
  *********************

  
  **************************        Volume         Depth
  Runoff Quantity Continuity     acre-feet        inches
  **************************     ---------       -------
  Total Precipitation ......    304481.412         2.890
  Evaporation Loss .........         0.000         0.000
  Infiltration Loss ........    304439.689         2.890
  Surface Runoff ...........        41.830         0.000
  Final Storage ............         0.000         0.000
  Continuity Error (%) .....        -0.000
  
  
  **************************        Volume        Volume
  Flow Routing Continuity        acre-feet      10^6 gal
  **************************     ---------     ---------
  Dry Weather Inflow .......         0.000         0.000
  Wet Weather Inflow .......        41.830        13.631
  Groundwater Inflow .......         0.000         0.000
  RDII Inflow ..............         0.000         0.000
  External Inflow ..........         0.000         0.000
  External Outflow .........         6.720         2.190
  Flooding Loss ............        35.498        11.568
  Evaporation Loss .........         0.000         0.000
  Exfiltration Loss ........         0.000         0.000
  Initial Stored Volume ....         0.000         0.000
  Final Stored Volume ......         0.000         0.000
  Continuity Error (%) .....        -0.930
  
  
  ********************************
  Highest Flow Instability Indexes
  ********************************
  Link C36 (5)
  Link C2 (1)
  Link C3 (1)
  Link C4 (1)
  Link C5 (1)
  
  
  *************************
  Routing Time Step Summary
  *************************
  Minimum Time Step           :   300.00 sec
  Average Time Step           :   300.00 sec
  Maximum Time Step           :   300.00 sec
  % of Time in Steady State   :     0.00
  Average Iterations per Step :     1.24
  % of Steps Not Converging   :     0.00
  
  
  ***************************
  Subcatchment Runoff Summary
  ***************************
  
  ------------------------------------------------------------------------------------------------------------------------------
                            Total      Total      Total      Total     Imperv       Perv      Total       Total     Peak  Runoff
                           Precip      Runon       Evap      Infil     Runoff     Runoff     Runoff      Runoff   Runoff   Coeff
  Subcatchment                 in         in         in         in         in         in         in    10^6 gal      CFS
  ------------------------------------------------------------------------------------------------------------------------------
  ID1                        2.89       0.00       0.00       2.89       0.00       0.00       0.00        0.35     6.20   0.000
  ID10                       2.89       0.00       0.00       2.89       0.00       0.00       0.00        0.11     1.96   0.000
  ID11                       2.89       0.00       0.00       2.89       0.00       0.00       0.00        0.11     1.96   0.000
  ID12                       2.89       0.00       0.00       2.89       0.00       0.00       0.00        0.11     1.97   0.000
  ID13                       2.89       0.00       0.00       2.89       0.00       0.00       0.00        0.31     5.57   0.000
  ID14                       2.89       0.00       0.00       2.89       0.00       0.00       0.00        0.44     7.90   0.000
  ID15                       2.89       0.00       0.00       2.89       0.00       0.00       0.00        0.22     3.92   0.000
  ID16                       2.89       0.00       0.00       2.89       0.00       0.00       0.00        0.19     3.66   0.000
  ID17                       2.89       0.00       0.00       2.89       0.00       0.00       0.00        0.27     8.69   0.000
  ID18                       2.89       0.00       0.00       2.89       0.00       0.00       0.00        0.49     8.78   0.000
  ID19                       2.89       0.00       0.00       2.89       0.00       0.00       0.00        0.23     4.03   0.000
  ID2                        2.89       0.00       0.00       2.89       0.00       0.00       0.00        0.83    14.89   0.001
  ID20                       2.89       0.00       0.00       2.89       0.00       0.00       0.00        0.23     4.03   0.000
  ID21                       2.89       0.00       0.00       2.89       0.00       0.00       0.00        0.23     4.03   0.000
  ID22                       2.89       0.00       0.00       2.89       0.00       0.00       0.00        0.23     4.03   0.000
  ID23                       2.89       0.00       0.00       2.89       0.00       0.00       0.00        0.23     4.03   0.000
  ID24                       2.89       0.00       0.00       2.89       0.00       0.00       0.00        0.49     8.79   0.000
  ID25                       2.89       0.00       0.00       2.89       0.00       0.00       0.00        0.17     4.11   0.000
  ID26                       2.89       0.00       0.00       2.89       0.00       0.00       0.00        0.12     3.85   0.000
  ID27                       2.89       0.00       0.00       2.89       0.00       0.00       0.00        0.10     3.21   0.000
  ID28                       2.89       0.00       0.00       2.89       0.00       0.00       0.00        0.26     8.88   0.000
  ID29                       2.89       0.00       0.00       2.89       0.00       0.00       0.00        0.13     3.55   0.000
  ID3                        2.89       0.00       0.00       2.89       0.00       0.00       0.00        0.25     4.52   0.000
  ID30                       2.89       0.00       0.00       2.89       0.00       0.00       0.00        0.04     0.94   0.000
  ID31                       2.89       0.00       0.00       2.89       0.00       0.00       0.00        0.04     0.94   0.000
  ID32                       2.89       0.00       0.00       2.89       0.00       0.00       0.00        0.04     0.98   0.000
  ID33                       2.89       0.00       0.00       2.89       0.00       0.00       0.00        0.11     2.97   0.000
  ID34                       2.89       0.00       0.00       2.89       0.00       0.00       0.00        0.11     2.97   0.000
  ID35                       2.89       0.00       0.00       2.89       0.00       0.00       0.00        0.11     2.97   0.000
  ID36                       2.89       0.00       0.00       2.89       0.00       0.00       0.00        0.11     2.97   0.000
  ID37                       2.89       0.00       0.00       2.89       0.00       0.00       0.00        0.15     4.04   0.000
  ID38                       2.89       0.00       0.00       2.89       0.00       0.00       0.00        0.11     3.51   0.000
  ID39                       2.89       0.00       0.00       2.89       0.00       0.00       0.00        0.06     1.90   0.000
  ID4                        2.89       0.00       0.00       2.89       0.00       0.00       0.00        0.19     3.43   0.000
  ID40                       2.89       0.00       0.00       2.89       0.00       0.00       0.00        0.12     4.04   0.000
  ID41                       2.89       0.00       0.00       2.89       0.00       0.00       0.00        0.11     3.85   0.000
  ID42                       2.89       0.00       0.00       2.89       0.00       0.00       0.00        0.11     3.85   0.000
  ID43                       2.89       0.00       0.00       2.89       0.00       0.00       0.00        0.41     7.22   0.000
  ID44                       2.89       0.00       0.00       2.89       0.00       0.00       0.00        0.41     7.22   0.000
  ID45                       2.89       0.00       0.00       2.89       0.00       0.00       0.00        0.22     5.13   0.000
  ID46                       2.89       0.00       0.00       2.89       0.00       0.00       0.00        0.14     3.64   0.000
  ID47                       2.89       0.00       0.00       2.89       0.00       0.00       0.00        0.14     3.65   0.000
  ID48                       2.89       0.00       0.00       2.89       0.00       0.00       0.00        0.04     0.94   0.000
  ID49                       2.89       0.00       0.00       2.89       0.00       0.00       0.00        0.04     0.94   0.000
  ID5                        2.89       0.00       0.00       2.89       0.00       0.00       0.00        0.33     5.81   0.000
  ID50                       2.89       0.00       0.00       2.89       0.00       0.00       0.00        0.04     0.94   0.000
  ID51                       2.89       0.00       0.00       2.89       0.00       0.00       0.00        0.10     2.61   0.000
  ID52                       2.89       0.00       0.00       2.89       0.00       0.00       0.00        0.31     5.60   0.000
  ID53                       2.89       0.00       0.00       2.89       0.00       0.00       0.00        0.05     1.24   0.000
  ID54                       2.89       0.00       0.00       2.89       0.00       0.00       0.00        0.04     0.95   0.000
  ID55                       2.89       0.00       0.00       2.89       0.00       0.00       0.00        0.15     3.85   0.000
  ID56                       2.89       0.00       0.00       2.89       0.00       0.00       0.00        0.15     3.98   0.000
  ID57                       2.89       0.00       0.00       2.89       0.00       0.00       0.00        0.50     8.88   0.000
  ID58                       2.89       0.00       0.00       2.89       0.00       0.00       0.00        0.30     5.38   0.000
  ID59                       2.89       0.00       0.00       2.89       0.00       0.00       0.00        0.25     4.45   0.000
  ID6                        2.89       0.00       0.00       2.89       0.00       0.00       0.00        0.41     7.22   0.000
  ID60                       2.89       0.00       0.00       2.89       0.00       0.00       0.00        0.23     4.03   0.000
  ID61                       2.89       0.00       0.00       2.89       0.00       0.00       0.00        0.23     4.03   0.000
  ID62                       2.89       0.00       0.00       2.89       0.00       0.00       0.00        0.11     1.96   0.000
  ID63                       2.89       0.00       0.00       2.89       0.00       0.00       0.00        0.04     0.94   0.000
  ID64                       2.89       0.00       0.00       2.89       0.00       0.00       0.00        0.08     2.68   0.000
  ID65                       2.89       0.00       0.00       2.89       0.00       0.00       0.00        0.41     7.23   0.000
  ID66                       2.89       0.00       0.00       2.89       0.00       0.00       0.00        0.14     3.64   0.000
  ID7                        2.89       0.00       0.00       2.89       0.00       0.00       0.00        0.41     7.23   0.000
  ID8                        2.89       0.00       0.00       2.89       0.00       0.00       0.00        0.41     7.23   0.000
  ID9                        2.89       0.00       0.00       2.89       0.00       0.00       0.00        0.11     1.96   0.000
  
  
  ******************
  Node Depth Summary
  ******************
  
  ---------------------------------------------------------------------------------
                                 Average  Maximum  Maximum  Time of Max    Reported
                                   Depth    Depth      HGL   Occurrence   Max Depth
  Node                 Type         Feet     Feet     Feet  days hr:min        Feet
  ---------------------------------------------------------------------------------
  J1                   JUNCTION     1.94    10.00  1039.85     0  01:10       10.00
  J2                   JUNCTION     2.42    10.00  1038.23     0  01:10       10.00
  J3                   JUNCTION     2.55    10.00  1036.51     0  01:10       10.00
  J4                   JUNCTION     2.83    10.00  1034.45     0  01:10       10.00
  J5                   JUNCTION     3.10    10.00  1033.22     0  01:10       10.00
  J6                   JUNCTION     3.18    10.00  1030.47     0  01:10       10.00
  J7                   JUNCTION     3.25    10.00  1028.36     0  01:10       10.00
  J8                   JUNCTION     3.32    10.00  1026.15     0  01:10       10.00
  J9                   JUNCTION     3.39    10.00  1022.61     0  01:10       10.00
  J10                  JUNCTION     3.40    10.00  1020.47     0  01:10       10.00
  J11                  JUNCTION     1.96    10.00  1018.60     0  01:10       10.00
  J12                  JUNCTION     1.90    10.00  1016.04     0  01:15       10.00
  J14                  JUNCTION     0.08     0.46  1020.76     0  01:25        0.46
  J15                  JUNCTION     0.63    10.00  1025.89     0  01:25       10.00
  J16                  JUNCTION     1.04    10.00  1023.46     0  01:20       10.00
  J17                  JUNCTION     1.31    10.00  1020.97     0  01:15       10.00
  J18                  JUNCTION     1.52    10.00  1018.77     0  01:15       10.00
  J19                  JUNCTION     3.06    10.00  1016.58     0  01:15       10.00
  J21                  JUNCTION     0.07     0.45  1027.75     0  01:25        0.45
  J22                  JUNCTION     0.82    10.00  1035.42     0  01:15       10.00
  J23                  JUNCTION     1.16    10.00  1033.27     0  01:15       10.00
  J24                  JUNCTION     1.37    10.00  1030.43     0  01:15       10.00
  J25                  JUNCTION     1.51    10.00  1028.10     0  01:15       10.00
  J26                  JUNCTION     2.97    10.00  1024.86     0  01:10       10.00
  J27                  JUNCTION     3.04    10.00  1023.25     0  01:10       10.00
  J28                  JUNCTION     2.65    10.00  1021.51     0  01:10       10.00
  J29                  JUNCTION     2.26    10.00  1019.26     0  01:10       10.00
  J30                  JUNCTION     2.83    10.00  1027.02     0  01:10       10.00
  J31                  JUNCTION     2.63    10.00  1029.38     0  01:10       10.00
  J32                  JUNCTION     2.42    10.00  1031.34     0  01:10       10.00
  J33                  JUNCTION     2.01    10.00  1033.40     0  01:10       10.00
  J34                  JUNCTION     1.14    10.00  1035.24     0  01:15       10.00
  J35                  JUNCTION     0.13     0.51  1031.35     0  01:40        0.51
  J36                  JUNCTION     2.15    10.00  1038.47     0  01:10       10.00
  J37                  JUNCTION     0.26     0.56  1004.63     0  01:15        0.56
  Outfall              OUTFALL      0.10     0.34  1000.34     0  01:20        0.34
  
  
  *******************
  Node Inflow Summary
  *******************
  
  -------------------------------------------------------------------------------------------------
                                  Maximum  Maximum                  Lateral       Total        Flow
                                  Lateral    Total  Time of Max      Inflow      Inflow     Balance
                                   Inflow   Inflow   Occurrence      Volume      Volume       Error
  Node                 Type           CFS      CFS  days hr:min    10^6 gal    10^6 gal     Percent
  -------------------------------------------------------------------------------------------------
  J1                   JUNCTION     17.67    17.67     0  01:40       0.991       0.991      -0.000
  J2                   JUNCTION     10.23    17.17     0  01:40       0.574        1.16       0.000
  J3                   JUNCTION      4.03    10.97     0  01:40       0.226       0.881       0.000
  J4                   JUNCTION     18.92    25.86     0  01:40        1.06        1.73      -0.000
  J5                   JUNCTION      4.03    18.90     0  01:40       0.226        1.65      -0.000
  J6                   JUNCTION      9.61    16.55     0  01:40       0.539        1.31       0.000
  J7                   JUNCTION      4.03    10.97     0  01:40       0.226        1.01       0.000
  J8                   JUNCTION     11.93    18.87     0  01:40       0.669        1.47       0.000
  J9                   JUNCTION     12.70    19.64     0  01:40       0.712        1.53       0.000
  J10                  JUNCTION     12.28    19.22     0  01:25       0.458         1.3       0.000
  J11                  JUNCTION      7.69    14.63     0  01:20       0.231        1.09       0.000
  J12                  JUNCTION      3.85    10.79     0  01:20       0.115        0.98      -0.000
  J14                  JUNCTION      4.21     4.21     0  01:25       0.159       0.159       0.000
  J15                  JUNCTION      3.95     8.02     0  01:35       0.149       0.309      -0.000
  J16                  JUNCTION      3.91    10.85     0  01:25       0.148       0.445       0.000
  J17                  JUNCTION      3.91    10.85     0  01:25       0.148       0.503       0.000
  J18                  JUNCTION      4.98    11.92     0  01:25       0.188       0.578       0.000
  J19                  JUNCTION      3.51    17.39     0  01:25       0.115        1.32      -0.000
  J21                  JUNCTION      3.98     3.98     0  01:25        0.15        0.15      -0.000
  J22                  JUNCTION      4.80     8.76     0  01:30       0.181       0.332       0.000
  J23                  JUNCTION      4.58    11.52     0  01:25       0.173       0.478      -0.000
  J24                  JUNCTION      4.57    11.51     0  01:25       0.173       0.534       0.000
  J25                  JUNCTION      4.57    11.51     0  01:25       0.173       0.571       0.000
  J26                  JUNCTION     12.31    26.19     0  01:35       0.625        1.78      -0.000
  J27                  JUNCTION      8.15    15.09     0  01:30        0.41        1.16      -0.000
  J28                  JUNCTION      4.11    11.05     0  01:30       0.167        0.93       0.000
  J29                  JUNCTION      6.75    13.69     0  01:25       0.221        0.99      -0.000
  J30                  JUNCTION      9.18    16.12     0  01:40       0.515        1.21       0.000
  J31                  JUNCTION      9.19    16.13     0  01:40       0.515        1.17       0.000
  J32                  JUNCTION      9.18    16.13     0  01:40       0.515        1.11      -0.000
  J33                  JUNCTION      9.18    16.12     0  01:40       0.515       0.976      -0.000
  J34                  JUNCTION      9.20     9.20     0  01:40       0.516       0.516       0.000
  J35                  JUNCTION      5.38     5.38     0  01:40       0.302       0.302       0.000
  J36                  JUNCTION     18.22    23.59     0  01:40        1.02        1.32       0.000
  J37                  JUNCTION     17.50    31.38     0  01:20       0.521        2.19       0.000
  Outfall              OUTFALL       0.00    31.40     0  01:20           0        2.19       0.000
  
  
  *********************
  Node Flooding Summary
  *********************
  
  Flooding refers to all water that overflows a node, whether it ponds or not.
  --------------------------------------------------------------------------
                                                             Total   Maximum
                                 Maximum   Time of Max       Flood    Ponded
                        Hours       Rate    Occurrence      Volume    Volume
  Node                 Flooded       CFS   days hr:min    10^6 gal  1000 ftł
  --------------------------------------------------------------------------
  J1                      2.25     10.73      0  01:40       0.412     0.000
  J2                      2.83     10.23      0  01:40       0.513     0.000
  J3                      3.00      4.03      0  01:40       0.212     0.000
  J4                      3.33     18.92      0  01:40       1.012     0.000
  J5                      3.67     11.96      0  01:40       0.891     0.000
  J6                      3.75      9.61      0  01:40       0.527     0.000
  J7                      3.83      4.03      0  01:40       0.218     0.000
  J8                      3.92     11.93      0  01:40       0.652     0.000
  J9                      4.00     12.70      0  01:40       0.697     0.000
  J10                     4.00     12.28      0  01:25       0.450     0.000
  J11                     2.17      7.69      0  01:20       0.229     0.000
  J12                     2.08      3.85      0  01:20       0.108     0.000
  J15                     0.67      1.08      0  01:35       0.013     0.000
  J16                     1.17      3.91      0  01:25       0.092     0.000
  J17                     1.50      3.91      0  01:25       0.113     0.000
  J18                     1.75      4.98      0  01:25       0.158     0.000
  J19                     3.58     10.45      0  01:25       0.529     0.000
  J22                     0.92      1.82      0  01:30       0.028     0.000
  J23                     1.33      4.58      0  01:25       0.120     0.000
  J24                     1.58      4.57      0  01:25       0.140     0.000
  J25                     1.75      4.57      0  01:25       0.149     0.000
  J26                     3.50     19.25      0  01:35       1.032     0.000
  J27                     3.58      8.15      0  01:30       0.403     0.000
  J28                     3.08      4.11      0  01:30       0.164     0.000
  J29                     2.58      6.75      0  01:25       0.211     0.000
  J30                     3.33      9.18      0  01:40       0.489     0.000
  J31                     3.08      9.19      0  01:40       0.479     0.000
  J32                     2.83      9.18      0  01:40       0.456     0.000
  J33                     2.33      9.18      0  01:40       0.385     0.000
  J34                     1.25      2.26      0  01:40       0.056     0.000
  J36                     2.50     15.66      0  01:40       0.631     0.000
  
  
  ***********************
  Outfall Loading Summary
  ***********************
  
  -----------------------------------------------------------
                         Flow       Avg       Max       Total
                         Freq      Flow      Flow      Volume
  Outfall Node           Pcnt       CFS       CFS    10^6 gal
  -----------------------------------------------------------
  Outfall               74.31      9.12     31.40       2.190
  -----------------------------------------------------------
  System                74.31      9.12     31.40       2.190
  
  
  *******************
  Street Flow Summary
  *******************
  
  ---------------------------------------------------------------------------------------------------------------------------------------
                                                                                        Peak     Avg.   Bypass     Back     Peak     Peak
                        Peak   Maximum   Maximum                                        Flow     Flow     Flow     Flow  Capture   Bypass
                        Flow    Spread     Depth  Inlet             Inlet     Inlet  Capture  Capture     Freq     Freq  / Inlet     Flow
  Street Conduit         CFS        ft        ft  Design            Location  Count     Pcnt     Pcnt     Pcnt     Pcnt      CFS      CFS
  ---------------------------------------------------------------------------------------------------------------------------------------
  C1                   6.940    28.000     0.560
  C2                   6.940    28.000     0.560
  C3                   6.940    28.000     0.560
  C4                   6.940    28.000     0.560
  C5                   6.940    28.000     0.560
  C6                   6.940    28.000     0.560
  C7                   6.940    28.000     0.560
  C8                   6.940    28.000     0.560
  C9                   6.940    28.000     0.560
  C10                  6.940    28.000     0.560
  C11                  6.940    28.000     0.560
  C12                  6.940    28.000     0.560
  C13                  5.370    25.435     0.509
  C14                  7.931    28.000     0.560
  C15                  6.940    28.000     0.560
  C16                  6.940    28.000     0.560
  C17                  6.940    28.000     0.560
  C18                  6.940    28.000     0.560
  C19                  6.940    28.000     0.560
  C20                  6.940    28.000     0.560
  C21                  6.940    28.000     0.560
  C22                  6.940    28.000     0.560
  C23                  6.940    28.000     0.560
  C24                  6.940    28.000     0.560
  C25                  4.154    23.070     0.461
  C26                  6.940    28.000     0.560
  C27                  6.940    28.000     0.560
  C28                  6.940    28.000     0.560
  C29                  6.940    28.000     0.560
  C30                  3.974    22.708     0.454
  C31                  6.940    28.000     0.560
  C32                  6.940    28.000     0.560
  C33                  6.940    28.000     0.560
  C34                  6.940    28.000     0.560
  
  
  ********************
  Link Flow Summary
  ********************
  
  -----------------------------------------------------------------------------
                                 Maximum  Time of Max   Maximum    Max/    Max/
                                  |Flow|   Occurrence   |Veloc|    Full    Full
  Link                 Type          CFS  days hr:min    ft/sec    Flow   Depth
  -----------------------------------------------------------------------------
  C1                   CONDUIT      6.94     0  01:15      0.47    1.00    1.00
  C2                   CONDUIT      6.94     0  01:10      0.45    1.00    1.00
  C3                   CONDUIT      6.94     0  01:15      0.45    1.00    1.00
  C4                   CONDUIT      6.94     0  01:10      0.44    1.00    1.00
  C5                   CONDUIT      6.94     0  01:15      0.45    1.00    1.00
  C6                   CONDUIT      6.94     0  01:15      0.45    1.00    1.00
  C7                   CONDUIT      6.94     0  01:15      0.45    1.00    1.00
  C8                   CONDUIT      6.94     0  01:15      0.46    1.00    1.00
  C9                   CONDUIT      6.94     0  01:15      0.45    1.00    1.00
  C10                  CONDUIT      6.94     0  01:15      0.45    1.00    1.00
  C11                  CONDUIT      6.94     0  01:15      0.45    1.00    1.00
  C12                  CONDUIT      6.94     0  01:15      0.44    1.00    1.00
  C13                  CONDUIT      5.37     0  01:45      0.44    0.77    0.91
  C14                  CONDUIT      7.93     0  01:15      0.51    1.00    1.00
  C15                  CONDUIT      6.94     0  01:15      0.45    1.00    1.00
  C16                  CONDUIT      6.94     0  01:15      0.44    1.00    1.00
  C17                  CONDUIT      6.94     0  01:15      0.45    1.00    1.00
  C18                  CONDUIT      6.94     0  01:15      0.45    1.00    1.00
  C19                  CONDUIT      6.94     0  01:15      0.45    1.00    1.00
  C20                  CONDUIT      6.94     0  01:15      0.45    1.00    1.00
  C21                  CONDUIT      6.94     0  01:15      0.45    1.00    1.00
  C22                  CONDUIT      6.94     0  01:15      0.45    1.00    1.00
  C23                  CONDUIT      6.94     0  01:15      0.45    1.00    1.00
  C24                  CONDUIT      6.94     0  01:15      0.45    1.00    1.00
  C25                  CONDUIT      4.15     0  01:35      0.60    0.60    0.82
  C26                  CONDUIT      6.94     0  01:25      0.45    1.00    1.00
  C27                  CONDUIT      6.94     0  01:20      0.45    1.00    1.00
  C28                  CONDUIT      6.94     0  01:20      0.45    1.00    1.00
  C29                  CONDUIT      6.94     0  01:20      0.45    1.00    1.00
  C30                  CONDUIT      3.97     0  01:30      0.43    0.57    0.81
  C31                  CONDUIT      6.94     0  01:20      0.45    1.00    1.00
  C32                  CONDUIT      6.94     0  01:20      0.45    1.00    1.00
  C33                  CONDUIT      6.94     0  01:20      0.45    1.00    1.00
  C34                  CONDUIT      6.94     0  01:20      0.45    1.00    1.00
  C36                  CONDUIT     31.40     0  01:20      9.01    0.00    0.03
  
  
  *************************
  Conduit Surcharge Summary
  *************************
  
  ----------------------------------------------------------------------------
                                                           Hours        Hours 
                         --------- Hours Full --------   Above Full   Capacity
  Conduit                Both Ends  Upstream  Dnstream   Normal Flow   Limited
  ----------------------------------------------------------------------------
  C1                          2.25      2.25      2.25      2.17         2.25
  C2                          2.83      2.83      2.83      2.83         2.83
  C3                          3.00      3.00      3.00      2.92         3.00
  C4                          3.33      3.33      3.33      3.33         3.33
  C5                          3.67      3.67      3.67      3.58         3.67
  C6                          3.75      3.75      3.75      3.67         3.75
  C7                          3.83      3.83      3.83      3.75         3.83
  C8                          3.92      3.92      3.92      3.83         3.92
  C9                          4.00      4.00      4.00      3.92         4.00
  C10                         4.00      4.00      4.00      3.92         4.00
  C11                         4.00      4.00      4.00      3.92         4.00
  C12                         3.92      3.92      3.92      3.92         3.92
  C14                         2.50      2.50      2.50      2.42         2.50
  C15                         1.25      1.25      1.25      1.25         1.25
  C16                         2.33      2.33      2.33      2.25         2.33
  C17                         2.83      2.83      2.83      2.75         2.83
  C18                         3.08      3.08      3.08      3.00         3.08
  C19                         3.33      3.33      3.33      3.25         3.33
  C20                         3.50      3.50      3.50      3.42         3.50
  C21                         3.58      3.58      3.58      3.50         3.58
  C22                         3.58      3.58      3.58      3.50         3.58
  C23                         2.58      2.58      2.58      2.58         2.58
  C24                         3.58      3.58      3.58      3.58         3.58
  C26                         0.67      0.67      0.67      0.67         0.67
  C27                         1.17      1.17      1.17      1.17         1.17
  C28                         1.50      1.50      1.50      1.42         1.50
  C29                         1.75      1.75      1.75      1.67         1.75
  C31                         0.92      0.92      0.92      0.83         0.92
  C32                         1.33      1.33      1.33      1.25         1.33
  C33                         1.58      1.58      1.58      1.50         1.58
  C34                         1.75      1.75      1.75      1.67         1.75
  

  Analysis begun on:  Sat Jun 17 21:34:44 2023
  Analysis ended on:  Sat Jun 17 21:34:44 2023
  Total elapsed time: < 1 sec