
  EPA STORM WATER MANAGEMENT MODEL - VERSION 5.2 (Build 5.2.3)
  ------------------------------------------------------------

  
  *************
  Element Count
  *************
  Number of rain gages ...... 1
  Number of subcatchments ... 66
  Number of nodes ........... 36
  Number of links ........... 35
  Number of pollutants ...... 0
  Number of land uses ....... 0
  
  
  ****************
  Raingage Summary
  ****************
                                                      Data       Recording
  Name                 Data Source                    Type       Interval 
  ------------------------------------------------------------------------
  RG1                  100yr2hr                       CUMULATIVE   5 min.
  
  
  ********************
  Subcatchment Summary
  ********************
  Name                       Area     Width   %Imperv    %Slope Rain Gage            Outlet              
  -----------------------------------------------------------------------------------------------------------
  ID1                    22524.07     99.94     22.12    0.0500 RG1                  J2                  
  ID10                   18003.45     99.92     22.73    0.0050 RG1                  J32                 
  ID11                   18002.92     99.92     30.45    0.0050 RG1                  J33                 
  ID12                   23112.24    100.41     21.76    0.0050 RG1                  J34                 
  ID13                   19818.01    284.25     26.84    0.0050 RG1                  J6                  
  ID14                   21026.90    201.41     27.88    0.0200 RG1                  J8                  
  ID15                   20713.03     99.95     25.05    0.0200 RG1                  J9                  
  ID16                   23772.45     99.95     20.77    0.0200 RG1                  J10                 
  ID17                   16535.55    218.06     27.91    0.0500 RG1                  J10                 
  ID18                   17506.67    224.03     33.74    0.0200 RG1                  J9                  
  ID19                   18514.24    102.84     31.11    0.0200 RG1                  J7                  
  ID2                    19668.66    279.20     20.99    0.0370 RG1                  J4                  
  ID20                   18514.64    102.84     31.65    0.0200 RG1                  J6                  
  ID21                   18515.02    102.84     29.75    0.0200 RG1                  J5                  
  ID22                   18515.55    102.84     26.07    0.0200 RG1                  J4                  
  ID23                   18516.14    102.84     29.35    0.0200 RG1                  J3                  
  ID24                   17514.00    224.23     24.57    0.0200 RG1                  J1                  
  ID25                   23239.75    108.39     20.22    0.0300 RG1                  J28                 
  ID26                   18945.10    156.15     28.14    0.0200 RG1                  J11                 
  ID27                   18251.32    107.56     25.86    0.0300 RG1                  J29                 
  ID28                   31084.41    364.42     22.53    0.0200 RG1                  J37                 
  ID29                   25257.38    399.28     20.61    0.0020 RG1                  J29                 
  ID3                    17251.55     84.83     31.23    0.0370 RG1                  J36                 
  ID30                   19311.17     99.93     25.41    0.0020 RG1                  J17                 
  ID31                   17783.63     99.94     25.32    0.0020 RG1                  J16                 
  ID32                   17406.07    103.94     23.84    0.0020 RG1                  J15                 
  ID33                   17997.48     99.95     31.88    0.0200 RG1                  J14                 
  ID34                   17997.62     99.94     19.02    0.0200 RG1                  J15                 
  ID35                   17998.65     99.93     25.54    0.0200 RG1                  J16                 
  ID36                   17999.64     99.93     38.22    0.0200 RG1                  J17                 
  ID37                   19254.86    135.83     42.96    0.0200 RG1                  J18                 
  ID38                   20271.62    132.92     29.68    0.0200 RG1                  J19                 
  ID39                   31499.97     49.38     23.76    0.0500 RG1                  J37                 
  ID4                    16963.09     64.32     31.26    0.0370 RG1                  J36                 
  ID40                   17243.73    105.01     29.72    0.0500 RG1                  J37                 
  ID41                   17978.26     99.95     26.06    0.0500 RG1                  J12                 
  ID42                   17993.24     99.95     32.56    0.0500 RG1                  J11                 
  ID43                   18007.73     99.92     22.21    0.0680 RG1                  J30                 
  ID44                   18007.84     99.92     21.55    0.0680 RG1                  J26                 
  ID45                   18007.91     99.92     26.71    0.0500 RG1                  J26                 
  ID46                   18008.00     99.92     28.06    0.0300 RG1                  J25                 
  ID47                   17913.56    100.18     26.87    0.0300 RG1                  J23                 
  ID48                   16798.23     99.81     35.30    0.0020 RG1                  J23                 
  ID49                   17698.34     99.92     26.36    0.0020 RG1                  J24                 
  ID5                    16766.77    109.02     30.47    0.0370 RG1                  J36                 
  ID50                   17997.74     99.92     26.07    0.0020 RG1                  J25                 
  ID51                   20319.50    277.74     21.73    0.0020 RG1                  J27                 
  ID52                   18793.83    287.56     23.97    0.0050 RG1                  J27                 
  ID53                   18132.64    131.90     30.16    0.0020 RG1                  J14                 
  ID54                   17266.30    100.83     25.05    0.0020 RG1                  J22                 
  ID55                   17690.37    105.83     37.79    0.0300 RG1                  J22                 
  ID56                   16240.73    109.28     31.32    0.0300 RG1                  J21                 
  ID57                   24498.32    226.58     24.81    0.0200 RG1                  J1                  
  ID58                   17044.77    100.80     29.83    0.0370 RG1                  J35                 
  ID59                   19749.04    227.01     27.71    0.0050 RG1                  J36                 
  ID6                    18007.83     99.92     34.24    0.0680 RG1                  J33                 
  ID60                   18513.94    102.84     22.33    0.0200 RG1                  J8                  
  ID61                   18516.97    102.84     27.63    0.0200 RG1                  J2                  
  ID62                   18004.03     99.92     31.59    0.0050 RG1                  J30                 
  ID63                   21378.62    100.04     23.74    0.0020 RG1                  J18                 
  ID64                   18403.96    109.88     31.41    0.0200 RG1                  J37                 
  ID65                   17966.75    100.06     31.18    0.0680 RG1                  J34                 
  ID66                   18008.01     99.92     29.02    0.0300 RG1                  J24                 
  ID7                    18014.46     99.95     32.51    0.0680 RG1                  J32                 
  ID8                    18014.05     99.95     26.33    0.0680 RG1                  J31                 
  ID9                    18010.36     99.95     34.51    0.0050 RG1                  J31                 
  
  
  ************
  Node Summary
  ************
                                           Invert      Max.    Ponded    External
  Name                 Type                 Elev.     Depth      Area    Inflow  
  -------------------------------------------------------------------------------
  J1                   JUNCTION           1029.85     10.00       0.0
  J2                   JUNCTION           1028.23     10.00       0.0
  J3                   JUNCTION           1026.51     10.00       0.0
  J4                   JUNCTION           1024.45     10.00       0.0
  J5                   JUNCTION           1023.22     10.00       0.0
  J6                   JUNCTION           1020.47     10.00       0.0
  J7                   JUNCTION           1018.36     10.00       0.0
  J8                   JUNCTION           1016.15     10.00       0.0
  J9                   JUNCTION           1012.61     10.00       0.0
  J10                  JUNCTION           1010.47     10.00       0.0
  J11                  JUNCTION           1008.60     10.00       0.0
  J12                  JUNCTION           1006.04     10.00       0.0
  J14                  JUNCTION           1020.30     10.00       0.0
  J15                  JUNCTION           1015.89     10.00       0.0
  J16                  JUNCTION           1013.46     10.00       0.0
  J17                  JUNCTION           1010.97     10.00       0.0
  J18                  JUNCTION           1008.77     10.00       0.0
  J19                  JUNCTION           1006.58     10.00       0.0
  J21                  JUNCTION           1027.29     10.00       0.0
  J22                  JUNCTION           1025.42     10.00       0.0
  J23                  JUNCTION           1023.27     10.00       0.0
  J24                  JUNCTION           1020.43     10.00       0.0
  J25                  JUNCTION           1018.10     10.00       0.0
  J26                  JUNCTION           1014.86     10.00       0.0
  J27                  JUNCTION           1013.25     10.00       0.0
  J28                  JUNCTION           1011.51     10.00       0.0
  J29                  JUNCTION           1009.26     10.00       0.0
  J30                  JUNCTION           1017.02     10.00       0.0
  J31                  JUNCTION           1019.38     10.00       0.0
  J32                  JUNCTION           1021.34     10.00       0.0
  J33                  JUNCTION           1023.40     10.00       0.0
  J34                  JUNCTION           1025.24     10.00       0.0
  J35                  JUNCTION           1030.84     10.00       0.0
  J36                  JUNCTION           1028.47     10.00       0.0
  J37                  JUNCTION           1004.07     10.00       0.0
  Outfall              OUTFALL            1000.00     10.00       0.0
  
  
  ************
  Link Summary
  ************
  Name             From Node        To Node          Type            Length    %Slope Roughness
  ---------------------------------------------------------------------------------------------
  C1               J1               J2               CONDUIT           81.0    2.0004    0.0110
  C2               J2               J3               CONDUIT           85.9    2.0004    0.0110
  C3               J3               J4               CONDUIT          103.1    2.0004    0.0110
  C4               J4               J5               CONDUIT           61.5    2.0004    0.0110
  C5               J5               J6               CONDUIT          137.3    2.0004    0.0110
  C6               J6               J7               CONDUIT          105.6    2.0004    0.0110
  C7               J7               J8               CONDUIT          110.4    2.0004    0.0110
  C8               J8               J9               CONDUIT          176.9    2.0004    0.0110
  C9               J9               J10              CONDUIT          107.5    2.0004    0.0110
  C10              J10              J11              CONDUIT           93.4    2.0004    0.0110
  C11              J11              J12              CONDUIT          128.1    2.0004    0.0110
  C12              J12              J37              CONDUIT           98.4    2.0004    0.0110
  C13              J35              J36              CONDUIT          118.4    2.0004    0.0110
  C14              J36              J5               CONDUIT          201.0    2.6126    0.0110
  C15              J34              J33              CONDUIT           92.0    2.0004    0.0110
  C16              J33              J32              CONDUIT          103.1    2.0004    0.0110
  C17              J32              J31              CONDUIT           98.0    2.0004    0.0110
  C18              J31              J30              CONDUIT          118.0    2.0004    0.0110
  C19              J30              J26              CONDUIT          108.2    2.0004    0.0110
  C20              J26              J27              CONDUIT           80.4    2.0004    0.0110
  C21              J27              J28              CONDUIT           87.0    2.0004    0.0110
  C22              J28              J29              CONDUIT          112.4    2.0004    0.0110
  C23              J29              J19              CONDUIT          134.0    2.0004    0.0110
  C24              J19              J37              CONDUIT          125.7    2.0004    0.0110
  C25              J14              J15              CONDUIT          220.3    2.0004    0.0110
  C26              J15              J16              CONDUIT          121.6    2.0004    0.0110
  C27              J16              J17              CONDUIT          124.7    2.0004    0.0110
  C28              J17              J18              CONDUIT          109.6    2.0004    0.0110
  C29              J18              J19              CONDUIT          109.6    2.0004    0.0110
  C30              J21              J22              CONDUIT           93.9    2.0004    0.0110
  C31              J22              J23              CONDUIT          107.5    2.0004    0.0110
  C32              J23              J24              CONDUIT          141.8    2.0004    0.0110
  C33              J24              J25              CONDUIT          116.6    2.0004    0.0110
  C34              J25              J26              CONDUIT          162.0    2.0004    0.0110
  C36              J37              Outfall          CONDUIT          203.4    2.0004    0.0110
  
  
  *********************
  Cross Section Summary
  *********************
                                        Full     Full     Hyd.     Max.   No. of     Full
  Conduit          Shape               Depth     Area     Rad.    Width  Barrels     Flow
  ---------------------------------------------------------------------------------------
  C1               LT_StreetHalf        0.56    15.68     0.27    56.00        1   126.19
  C2               LT_StreetHalf        0.56    15.68     0.27    56.00        1   126.19
  C3               LT_StreetHalf        0.56    15.68     0.27    56.00        1   126.19
  C4               LT_StreetHalf        0.56    15.68     0.27    56.00        1   126.19
  C5               LT_StreetHalf        0.56    15.68     0.27    56.00        1   126.19
  C6               LT_StreetHalf        0.56    15.68     0.27    56.00        1   126.19
  C7               LT_StreetHalf        0.56    15.68     0.27    56.00        1   126.19
  C8               LT_StreetHalf        0.56    15.68     0.27    56.00        1   126.19
  C9               LT_StreetHalf        0.56    15.68     0.27    56.00        1   126.19
  C10              LT_StreetHalf        0.56    15.68     0.27    56.00        1   126.19
  C11              LT_StreetHalf        0.56    15.68     0.27    56.00        1   126.19
  C12              LT_StreetHalf        0.56    15.68     0.27    56.00        1   126.19
  C13              LT_StreetHalf        0.56    15.68     0.27    56.00        1   126.19
  C14              LT_StreetHalf        0.56    15.68     0.27    56.00        1   144.21
  C15              LT_StreetHalf        0.56    15.68     0.27    56.00        1   126.19
  C16              LT_StreetHalf        0.56    15.68     0.27    56.00        1   126.19
  C17              LT_StreetHalf        0.56    15.68     0.27    56.00        1   126.19
  C18              LT_StreetHalf        0.56    15.68     0.27    56.00        1   126.19
  C19              LT_StreetHalf        0.56    15.68     0.27    56.00        1   126.19
  C20              LT_StreetHalf        0.56    15.68     0.27    56.00        1   126.19
  C21              LT_StreetHalf        0.56    15.68     0.27    56.00        1   126.19
  C22              LT_StreetHalf        0.56    15.68     0.27    56.00        1   126.19
  C23              LT_StreetHalf        0.56    15.68     0.27    56.00        1   126.19
  C24              LT_StreetHalf        0.56    15.68     0.27    56.00        1   126.19
  C25              LT_StreetHalf        0.56    15.68     0.27    56.00        1   126.19
  C26              LT_StreetHalf        0.56    15.68     0.27    56.00        1   126.19
  C27              LT_StreetHalf        0.56    15.68     0.27    56.00        1   126.19
  C28              LT_StreetHalf        0.56    15.68     0.27    56.00        1   126.19
  C29              LT_StreetHalf        0.56    15.68     0.27    56.00        1   126.19
  C30              LT_StreetHalf        0.56    15.68     0.27    56.00        1   126.19
  C31              LT_StreetHalf        0.56    15.68     0.27    56.00        1   126.19
  C32              LT_StreetHalf        0.56    15.68     0.27    56.00        1   126.19
  C33              LT_StreetHalf        0.56    15.68     0.27    56.00        1   126.19
  C34              LT_StreetHalf        0.56    15.68     0.27    56.00        1   126.19
  C36              TRAPEZOIDAL         10.00   150.00     4.64    20.00        1  7967.55
  
  
  **************
  Street Summary
  **************

  Street LT_StreetHalf
  Area:  
              0.0004     0.0016     0.0036     0.0064     0.0100 
              0.0144     0.0196     0.0256     0.0324     0.0400 
              0.0484     0.0576     0.0676     0.0784     0.0900 
              0.1024     0.1156     0.1296     0.1444     0.1600 
              0.1764     0.1936     0.2116     0.2304     0.2500 
              0.2704     0.2916     0.3136     0.3364     0.3600 
              0.3844     0.4096     0.4356     0.4624     0.4900 
              0.5184     0.5476     0.5776     0.6084     0.6400 
              0.6724     0.7056     0.7396     0.7744     0.8100 
              0.8464     0.8836     0.9216     0.9604     1.0000 
  Hrad:  
              0.0200     0.0400     0.0600     0.0800     0.1000 
              0.1200     0.1400     0.1600     0.1800     0.2000 
              0.2200     0.2400     0.2600     0.2800     0.3000 
              0.3200     0.3400     0.3600     0.3800     0.4000 
              0.4200     0.4400     0.4600     0.4800     0.5000 
              0.5200     0.5400     0.5600     0.5800     0.6000 
              0.6200     0.6400     0.6600     0.6800     0.7000 
              0.7200     0.7400     0.7600     0.7800     0.8000 
              0.8200     0.8400     0.8600     0.8800     0.9000 
              0.9200     0.9400     0.9600     0.9800     1.0000 
  Width: 
              0.0200     0.0400     0.0600     0.0800     0.1000 
              0.1200     0.1400     0.1600     0.1800     0.2000 
              0.2200     0.2400     0.2600     0.2800     0.3000 
              0.3200     0.3400     0.3600     0.3800     0.4000 
              0.4200     0.4400     0.4600     0.4800     0.5000 
              0.5200     0.5400     0.5600     0.5800     0.6000 
              0.6200     0.6400     0.6600     0.6800     0.7000 
              0.7200     0.7400     0.7600     0.7800     0.8000 
              0.8200     0.8400     0.8600     0.8800     0.9000 
              0.9200     0.9400     0.9600     0.9800     1.0000 
  
  
  ****************
  Analysis Options
  ****************
  Flow Units ............... CFS
  Process Models:
    Rainfall/Runoff ........ YES
    RDII ................... NO
    Snowmelt ............... NO
    Groundwater ............ NO
    Flow Routing ........... YES
    Ponding Allowed ........ NO
    Water Quality .......... NO
  Infiltration Method ...... GREEN_AMPT
  Flow Routing Method ...... KINWAVE
  Starting Date ............ 01/01/2000 00:00:00
  Ending Date .............. 01/01/2000 12:00:00
  Antecedent Dry Days ...... 0.0
  Report Time Step ......... 00:05:00
  Wet Time Step ............ 00:05:00
  Dry Time Step ............ 01:00:00
  Routing Time Step ........ 300.00 sec
  
  
  *********************
  Control Actions Taken
  *********************

  
  **************************        Volume         Depth
  Runoff Quantity Continuity     acre-feet        inches
  **************************     ---------       -------
  Total Precipitation ......    304481.412         2.890
  Evaporation Loss .........         0.000         0.000
  Infiltration Loss ........    221062.765         2.098
  Surface Runoff ...........      1356.210         0.013
  Final Storage ............     82067.683         0.779
  Continuity Error (%) .....        -0.002
  
  
  **************************        Volume        Volume
  Flow Routing Continuity        acre-feet      10^6 gal
  **************************     ---------     ---------
  Dry Weather Inflow .......         0.000         0.000
  Wet Weather Inflow .......      1341.358       437.102
  Groundwater Inflow .......         0.000         0.000
  RDII Inflow ..............         0.000         0.000
  External Inflow ..........         0.000         0.000
  External Outflow .........       343.223       111.844
  Flooding Loss ............       996.983       324.882
  Evaporation Loss .........         0.000         0.000
  Exfiltration Loss ........         0.000         0.000
  Initial Stored Volume ....         0.000         0.000
  Final Stored Volume ......         1.257         0.410
  Continuity Error (%) .....        -0.008
  
  
  ********************************
  Highest Flow Instability Indexes
  ********************************
  All links are stable.
  
  
  *************************
  Routing Time Step Summary
  *************************
  Minimum Time Step           :   300.00 sec
  Average Time Step           :   300.00 sec
  Maximum Time Step           :   300.00 sec
  % of Time in Steady State   :     0.00
  Average Iterations per Step :     1.14
  % of Steps Not Converging   :     0.00
  
  
  ***************************
  Subcatchment Runoff Summary
  ***************************
  
  ------------------------------------------------------------------------------------------------------------------------------
                            Total      Total      Total      Total     Imperv       Perv      Total       Total     Peak  Runoff
                           Precip      Runon       Evap      Infil     Runoff     Runoff     Runoff      Runoff   Runoff   Coeff
  Subcatchment                 in         in         in         in         in         in         in    10^6 gal      CFS
  ------------------------------------------------------------------------------------------------------------------------------
  ID1                        2.89       0.00       0.00       2.25       0.01       0.00       0.01        8.46    33.87   0.005
  ID10                       2.89       0.00       0.00       2.23       0.01       0.00       0.01        2.70    10.72   0.002
  ID11                       2.89       0.00       0.00       2.01       0.01       0.00       0.01        2.71    10.73   0.002
  ID12                       2.89       0.00       0.00       2.26       0.00       0.00       0.00        2.72    10.78   0.001
  ID13                       2.89       0.00       0.00       2.11       0.01       0.00       0.01        7.63    30.47   0.005
  ID14                       2.89       0.00       0.00       2.08       0.02       0.00       0.02       10.77    43.16   0.007
  ID15                       2.89       0.00       0.00       2.17       0.01       0.00       0.01        5.39    21.44   0.003
  ID16                       2.89       0.00       0.00       2.29       0.01       0.00       0.01        5.35    21.10   0.003
  ID17                       2.89       0.00       0.00       2.08       0.04       0.00       0.04       17.58    67.10   0.014
  ID18                       2.89       0.00       0.00       1.91       0.02       0.00       0.03       11.95    47.99   0.009
  ID19                       2.89       0.00       0.00       1.99       0.01       0.00       0.01        5.55    22.06   0.004
  ID2                        2.89       0.00       0.00       2.28       0.04       0.00       0.04       19.70    81.05   0.013
  ID20                       2.89       0.00       0.00       1.97       0.01       0.00       0.01        5.55    22.06   0.004
  ID21                       2.89       0.00       0.00       2.03       0.01       0.00       0.01        5.54    22.06   0.004
  ID22                       2.89       0.00       0.00       2.14       0.01       0.00       0.01        5.54    22.06   0.004
  ID23                       2.89       0.00       0.00       2.04       0.01       0.00       0.01        5.54    22.06   0.004
  ID24                       2.89       0.00       0.00       2.18       0.02       0.00       0.02       11.88    47.99   0.009
  ID25                       2.89       0.00       0.00       2.31       0.01       0.00       0.01        6.99    26.93   0.004
  ID26                       2.89       0.00       0.00       2.08       0.02       0.00       0.02        8.15    30.35   0.005
  ID27                       2.89       0.00       0.00       2.14       0.01       0.00       0.01        6.88    25.55   0.005
  ID28                       2.89       0.00       0.00       2.24       0.02       0.00       0.02       18.78    70.54   0.008
  ID29                       2.89       0.00       0.00       2.29       0.01       0.00       0.01        6.64    25.19   0.003
  ID3                        2.89       0.00       0.00       1.99       0.01       0.00       0.01        6.21    24.75   0.005
  ID30                       2.89       0.00       0.00       2.16       0.00       0.00       0.00        1.68     6.39   0.001
  ID31                       2.89       0.00       0.00       2.16       0.00       0.00       0.00        1.68     6.39   0.001
  ID32                       2.89       0.00       0.00       2.20       0.00       0.00       0.00        1.75     6.64   0.001
  ID33                       2.89       0.00       0.00       1.97       0.01       0.00       0.01        5.29    20.19   0.004
  ID34                       2.89       0.00       0.00       2.34       0.01       0.00       0.01        5.26    20.17   0.004
  ID35                       2.89       0.00       0.00       2.15       0.01       0.00       0.01        5.28    20.18   0.004
  ID36                       2.89       0.00       0.00       1.79       0.01       0.00       0.01        5.30    20.19   0.004
  ID37                       2.89       0.00       0.00       1.65       0.01       0.00       0.01        7.19    27.43   0.005
  ID38                       2.89       0.00       0.00       2.03       0.01       0.00       0.01        6.98    26.19   0.004
  ID39                       2.89       0.00       0.00       2.20       0.00       0.00       0.00        4.12    15.16   0.002
  ID4                        2.89       0.00       0.00       1.99       0.01       0.00       0.01        4.72    18.77   0.004
  ID40                       2.89       0.00       0.00       2.03       0.02       0.00       0.02        8.65    32.19   0.006
  ID41                       2.89       0.00       0.00       2.14       0.02       0.00       0.02        8.23    30.63   0.006
  ID42                       2.89       0.00       0.00       1.95       0.02       0.00       0.02        8.26    30.65   0.006
  ID43                       2.89       0.00       0.00       2.25       0.02       0.00       0.02        9.79    39.45   0.007
  ID44                       2.89       0.00       0.00       2.27       0.02       0.00       0.02        9.78    39.44   0.007
  ID45                       2.89       0.00       0.00       2.12       0.02       0.00       0.02        8.32    32.37   0.006
  ID46                       2.89       0.00       0.00       2.08       0.01       0.00       0.01        6.45    24.70   0.005
  ID47                       2.89       0.00       0.00       2.11       0.01       0.00       0.01        6.46    24.77   0.005
  ID48                       2.89       0.00       0.00       1.87       0.00       0.00       0.00        1.68     6.38   0.001
  ID49                       2.89       0.00       0.00       2.13       0.00       0.00       0.00        1.68     6.39   0.001
  ID5                        2.89       0.00       0.00       2.01       0.02       0.00       0.02        7.95    31.79   0.006
  ID50                       2.89       0.00       0.00       2.14       0.00       0.00       0.00        1.68     6.39   0.001
  ID51                       2.89       0.00       0.00       2.26       0.01       0.00       0.01        4.64    17.74   0.003
  ID52                       2.89       0.00       0.00       2.20       0.01       0.00       0.02        7.69    30.76   0.005
  ID53                       2.89       0.00       0.00       2.02       0.00       0.00       0.00        2.22     8.43   0.002
  ID54                       2.89       0.00       0.00       2.17       0.00       0.00       0.00        1.70     6.44   0.001
  ID55                       2.89       0.00       0.00       1.80       0.01       0.00       0.01        6.85    26.17   0.005
  ID56                       2.89       0.00       0.00       1.98       0.02       0.00       0.02        7.05    27.01   0.006
  ID57                       2.89       0.00       0.00       2.17       0.02       0.00       0.02       12.09    48.54   0.006
  ID58                       2.89       0.00       0.00       2.03       0.02       0.00       0.02        7.36    29.39   0.006
  ID59                       2.89       0.00       0.00       2.09       0.01       0.00       0.01        6.11    24.35   0.004
  ID6                        2.89       0.00       0.00       1.90       0.02       0.00       0.02        9.87    39.49   0.007
  ID60                       2.89       0.00       0.00       2.24       0.01       0.00       0.01        5.52    22.05   0.004
  ID61                       2.89       0.00       0.00       2.09       0.01       0.00       0.01        5.54    22.06   0.004
  ID62                       2.89       0.00       0.00       1.98       0.01       0.00       0.01        2.71    10.73   0.002
  ID63                       2.89       0.00       0.00       2.20       0.00       0.00       0.00        1.68     6.39   0.001
  ID64                       2.89       0.00       0.00       1.98       0.01       0.00       0.01        5.76    21.32   0.004
  ID65                       2.89       0.00       0.00       1.99       0.02       0.00       0.02        9.87    39.54   0.007
  ID66                       2.89       0.00       0.00       2.05       0.01       0.00       0.01        6.46    24.70   0.005
  ID7                        2.89       0.00       0.00       1.95       0.02       0.00       0.02        9.87    39.50   0.007
  ID8                        2.89       0.00       0.00       2.13       0.02       0.00       0.02        9.83    39.48   0.007
  ID9                        2.89       0.00       0.00       1.89       0.01       0.00       0.01        2.71    10.73   0.002
  
  
  ******************
  Node Depth Summary
  ******************
  
  ---------------------------------------------------------------------------------
                                 Average  Maximum  Maximum  Time of Max    Reported
                                   Depth    Depth      HGL   Occurrence   Max Depth
  Node                 Type         Feet     Feet     Feet  days hr:min        Feet
  ---------------------------------------------------------------------------------
  J1                   JUNCTION     0.44     0.51  1030.35     0  02:05        0.51
  J2                   JUNCTION     3.34    10.00  1038.23     0  01:30       10.00
  J3                   JUNCTION     8.98    10.00  1036.51     0  01:20       10.00
  J4                   JUNCTION     9.11    10.00  1034.45     0  01:10       10.00
  J5                   JUNCTION     9.11    10.00  1033.22     0  01:10       10.00
  J6                   JUNCTION     9.11    10.00  1030.47     0  01:10       10.00
  J7                   JUNCTION     9.11    10.00  1028.36     0  01:10       10.00
  J8                   JUNCTION     9.11    10.00  1026.15     0  01:10       10.00
  J9                   JUNCTION     9.11    10.00  1022.61     0  01:10       10.00
  J10                  JUNCTION     9.11    10.00  1020.47     0  01:10       10.00
  J11                  JUNCTION     9.12    10.00  1018.60     0  01:10       10.00
  J12                  JUNCTION     9.12    10.00  1016.04     0  01:10       10.00
  J14                  JUNCTION     0.28     0.32  1020.62     0  02:05        0.32
  J15                  JUNCTION     0.36     0.41  1016.30     0  02:05        0.41
  J16                  JUNCTION     0.42     0.48  1013.93     0  02:05        0.48
  J17                  JUNCTION     0.47     0.53  1011.49     0  02:05        0.53
  J18                  JUNCTION     2.22    10.00  1018.77     0  01:35       10.00
  J19                  JUNCTION     9.12    10.00  1016.58     0  01:10       10.00
  J21                  JUNCTION     0.28     0.31  1027.61     0  02:05        0.31
  J22                  JUNCTION     0.37     0.42  1025.84     0  02:05        0.42
  J23                  JUNCTION     0.44     0.49  1023.76     0  02:05        0.49
  J24                  JUNCTION     0.49     0.55  1020.98     0  02:05        0.55
  J25                  JUNCTION     8.91    10.00  1028.10     0  01:25       10.00
  J26                  JUNCTION     9.11    10.00  1024.86     0  01:10       10.00
  J27                  JUNCTION     9.11    10.00  1023.25     0  01:10       10.00
  J28                  JUNCTION     9.11    10.00  1021.51     0  01:10       10.00
  J29                  JUNCTION     9.11    10.00  1019.26     0  01:10       10.00
  J30                  JUNCTION     9.04    10.00  1027.02     0  01:15       10.00
  J31                  JUNCTION     9.04    10.00  1029.38     0  01:15       10.00
  J32                  JUNCTION     3.14    10.00  1031.34     0  01:30       10.00
  J33                  JUNCTION     0.45     0.51  1023.92     0  02:05        0.51
  J34                  JUNCTION     0.35     0.40  1025.64     0  02:05        0.40
  J35                  JUNCTION     0.28     0.32  1031.16     0  02:05        0.32
  J36                  JUNCTION     0.47     0.54  1029.01     0  02:05        0.54
  J37                  JUNCTION     1.46     1.61  1005.68     0  02:05        1.61
  Outfall              OUTFALL      1.46     1.61  1001.61     0  02:05        1.61
  
  
  *******************
  Node Inflow Summary
  *******************
  
  -------------------------------------------------------------------------------------------------
                                  Maximum  Maximum                  Lateral       Total        Flow
                                  Lateral    Total  Time of Max      Inflow      Inflow     Balance
                                   Inflow   Inflow   Occurrence      Volume      Volume       Error
  Node                 Type           CFS      CFS  days hr:min    10^6 gal    10^6 gal     Percent
  -------------------------------------------------------------------------------------------------
  J1                   JUNCTION     96.53    96.53     0  02:05        23.7        23.7       0.000
  J2                   JUNCTION     55.93   152.43     0  02:05        13.8        37.6       0.000
  J3                   JUNCTION     22.06   148.25     0  02:05        5.48        41.9       0.000
  J4                   JUNCTION    103.10   229.29     0  02:05          25          62       0.000
  J5                   JUNCTION     22.06   277.18     0  02:05        5.48        74.6       0.000
  J6                   JUNCTION     52.54   178.72     0  02:05          13        50.3       0.000
  J7                   JUNCTION     22.06   148.25     0  02:05        5.48        42.8       0.000
  J8                   JUNCTION     65.21   191.40     0  02:05        16.1        53.4      -0.000
  J9                   JUNCTION     69.43   195.62     0  02:05        17.2        54.5      -0.000
  J10                  JUNCTION     88.20   214.39     0  02:05        22.7        60.1       0.000
  J11                  JUNCTION     61.01   187.19     0  02:05        16.2        53.7      -0.000
  J12                  JUNCTION     30.63   156.82     0  02:05        8.13        45.6      -0.000
  J14                  JUNCTION     28.62    28.62     0  02:05        7.42        7.42       0.000
  J15                  JUNCTION     26.81    55.39     0  02:05        6.93        14.3       0.000
  J16                  JUNCTION     26.56    81.92     0  02:05        6.88        21.2       0.000
  J17                  JUNCTION     26.57   108.45     0  02:05         6.9        28.1       0.000
  J18                  JUNCTION     33.83   142.23     0  02:05        8.78        36.9       0.000
  J19                  JUNCTION     26.19   278.56     0  02:05         6.9        80.7       0.000
  J21                  JUNCTION     27.01    27.01     0  02:05        6.97        6.97       0.000
  J22                  JUNCTION     32.62    59.62     0  02:05        8.45        15.4       0.000
  J23                  JUNCTION     31.15    90.73     0  02:05        8.06        23.5       0.000
  J24                  JUNCTION     31.09   121.77     0  02:05        8.05        31.5       0.000
  J25                  JUNCTION     31.09   152.80     0  02:05        8.04        39.5      -0.000
  J26                  JUNCTION     71.82   324.19     0  02:05        17.9        91.9       0.000
  J27                  JUNCTION     48.50   174.69     0  02:05        12.2        49.5       0.000
  J28                  JUNCTION     26.93   153.12     0  02:05        6.92        44.2      -0.000
  J29                  JUNCTION     50.74   176.92     0  02:05        13.4        50.7       0.000
  J30                  JUNCTION     50.17   176.36     0  02:05        12.4        49.4      -0.000
  J31                  JUNCTION     50.21   176.40     0  02:05        12.4        48.7      -0.000
  J32                  JUNCTION     50.22   150.69     0  02:05        12.4        37.3      -0.000
  J33                  JUNCTION     50.22   100.51     0  02:05        12.4        24.9       0.000
  J34                  JUNCTION     50.32    50.32     0  02:05        12.5        12.5       0.000
  J35                  JUNCTION     29.39    29.39     0  02:05        7.28        7.28       0.000
  J36                  JUNCTION     99.65   129.03     0  02:05        24.7          32       0.000
  J37                  JUNCTION    139.22   391.59     0  02:05        36.9         112       0.000
  Outfall              OUTFALL       0.00   391.57     0  02:05           0         112       0.000
  
  
  *********************
  Node Flooding Summary
  *********************
  
  Flooding refers to all water that overflows a node, whether it ponds or not.
  --------------------------------------------------------------------------
                                                             Total   Maximum
                                 Maximum   Time of Max       Flood    Ponded
                        Hours       Rate    Occurrence      Volume    Volume
  Node                 Flooded       CFS   days hr:min    10^6 gal  1000 ftł
  --------------------------------------------------------------------------
  J2                      3.58     26.25      0  02:05       1.131     0.000
  J3                     10.75     22.06      0  02:05       4.910     0.000
  J4                     10.92    103.10      0  02:05      24.887     0.000
  J5                     10.92    150.99      0  02:05      37.482     0.000
  J6                     10.92     52.54      0  02:05      13.037     0.000
  J7                     10.92     22.06      0  02:05       5.488     0.000
  J8                     10.92     65.21      0  02:05      16.123     0.000
  J9                     10.92     69.43      0  02:05      17.159     0.000
  J10                    10.92     88.20      0  02:05      22.691     0.000
  J11                    10.92     61.01      0  02:05      16.233     0.000
  J12                    10.92     30.63      0  02:05       8.139     0.000
  J18                     2.17     16.04      0  02:05       0.431     0.000
  J19                    10.92    152.38      0  02:05      43.376     0.000
  J25                    10.67     26.61      0  02:05       2.645     0.000
  J26                    10.92    198.00      0  02:05      54.819     0.000
  J27                    10.92     48.50      0  02:05      12.204     0.000
  J28                    10.92     26.93      0  02:05       6.921     0.000
  J29                    10.92     50.74      0  02:05      13.376     0.000
  J30                    10.83     50.17      0  02:05      12.305     0.000
  J31                    10.83     50.21      0  02:05      11.691     0.000
  J32                     3.33     24.50      0  02:05       1.002     0.000
  
  
  ***********************
  Outfall Loading Summary
  ***********************
  
  -----------------------------------------------------------
                         Flow       Avg       Max       Total
                         Freq      Flow      Flow      Volume
  Outfall Node           Pcnt       CFS       CFS    10^6 gal
  -----------------------------------------------------------
  Outfall               98.61    352.29    391.57     111.836
  -----------------------------------------------------------
  System                98.61    352.29    391.57     111.836
  
  
  *******************
  Street Flow Summary
  *******************
  
  ---------------------------------------------------------------------------------------------------------------------------------------
                                                                                        Peak     Avg.   Bypass     Back     Peak     Peak
                        Peak   Maximum   Maximum                                        Flow     Flow     Flow     Flow  Capture   Bypass
                        Flow    Spread     Depth  Inlet             Inlet     Inlet  Capture  Capture     Freq     Freq  / Inlet     Flow
  Street Conduit         CFS        ft        ft  Design            Location  Count     Pcnt     Pcnt     Pcnt     Pcnt      CFS      CFS
  ---------------------------------------------------------------------------------------------------------------------------------------
  C1                  96.504    25.322     0.506
  C2                 126.186    28.000     0.560
  C3                 126.186    28.000     0.560
  C4                 126.186    28.000     0.560
  C5                 126.186    28.000     0.560
  C6                 126.186    28.000     0.560
  C7                 126.186    28.000     0.560
  C8                 126.186    28.000     0.560
  C9                 126.186    28.000     0.560
  C10                126.186    28.000     0.560
  C11                126.186    28.000     0.560
  C12                126.186    28.000     0.560
  C13                 29.375    16.211     0.324
  C14                128.944    26.852     0.537
  C15                 50.295    19.831     0.397
  C16                100.466    25.708     0.514
  C17                126.186    28.000     0.560
  C18                126.186    28.000     0.560
  C19                126.186    28.000     0.560
  C20                126.186    28.000     0.560
  C21                126.186    28.000     0.560
  C22                126.186    28.000     0.560
  C23                126.186    28.000     0.560
  C24                126.186    28.000     0.560
  C25                 28.582    16.046     0.321
  C26                 55.358    20.559     0.411
  C27                 81.876    23.809     0.476
  C28                108.401    26.451     0.529
  C29                126.186    28.000     0.560
  C30                 27.000    15.706     0.314
  C31                 59.588    21.134     0.423
  C32                 90.676    24.739     0.495
  C33                121.708    27.625     0.552
  C34                126.186    28.000     0.560
  
  
  ********************
  Link Flow Summary
  ********************
  
  -----------------------------------------------------------------------------
                                 Maximum  Time of Max   Maximum    Max/    Max/
                                  |Flow|   Occurrence   |Veloc|    Full    Full
  Link                 Type          CFS  days hr:min    ft/sec    Flow   Depth
  -----------------------------------------------------------------------------
  C1                   CONDUIT     96.50     0  02:05      7.52    0.76    0.90
  C2                   CONDUIT    126.19     0  01:30      8.05    1.00    1.00
  C3                   CONDUIT    126.19     0  01:20      8.05    1.00    1.00
  C4                   CONDUIT    126.19     0  01:10      8.05    1.00    1.00
  C5                   CONDUIT    126.19     0  01:10      8.05    1.00    1.00
  C6                   CONDUIT    126.19     0  01:10      8.05    1.00    1.00
  C7                   CONDUIT    126.19     0  01:10      8.05    1.00    1.00
  C8                   CONDUIT    126.19     0  01:10      8.05    1.00    1.00
  C9                   CONDUIT    126.19     0  01:10      8.05    1.00    1.00
  C10                  CONDUIT    126.19     0  01:10      8.05    1.00    1.00
  C11                  CONDUIT    126.19     0  01:10      8.05    1.00    1.00
  C12                  CONDUIT    126.19     0  01:10      8.05    1.00    1.00
  C13                  CONDUIT     29.37     0  02:05      5.59    0.23    0.58
  C14                  CONDUIT    128.94     0  02:10      8.95    0.89    0.96
  C15                  CONDUIT     50.30     0  02:05      6.39    0.40    0.71
  C16                  CONDUIT    100.47     0  02:05      7.60    0.80    0.92
  C17                  CONDUIT    126.19     0  01:30      8.05    1.00    1.00
  C18                  CONDUIT    126.19     0  01:15      8.05    1.00    1.00
  C19                  CONDUIT    126.19     0  01:15      8.05    1.00    1.00
  C20                  CONDUIT    126.19     0  01:10      8.05    1.00    1.00
  C21                  CONDUIT    126.19     0  01:10      8.05    1.00    1.00
  C22                  CONDUIT    126.19     0  01:10      8.05    1.00    1.00
  C23                  CONDUIT    126.19     0  01:10      8.05    1.00    1.00
  C24                  CONDUIT    126.19     0  01:10      8.05    1.00    1.00
  C25                  CONDUIT     28.58     0  02:05      5.55    0.23    0.57
  C26                  CONDUIT     55.36     0  02:05      6.55    0.44    0.73
  C27                  CONDUIT     81.88     0  02:05      7.22    0.65    0.85
  C28                  CONDUIT    108.40     0  02:05      7.75    0.86    0.94
  C29                  CONDUIT    126.19     0  01:35      8.05    1.00    1.00
  C30                  CONDUIT     27.00     0  02:05      5.47    0.21    0.56
  C31                  CONDUIT     59.59     0  02:05      6.67    0.47    0.75
  C32                  CONDUIT     90.68     0  02:05      7.41    0.72    0.88
  C33                  CONDUIT    121.71     0  02:05      7.98    0.96    0.99
  C34                  CONDUIT    126.19     0  01:25      8.05    1.00    1.00
  C36                  CONDUIT    391.57     0  02:05     22.51    0.05    0.16
  
  
  *************************
  Conduit Surcharge Summary
  *************************
  
  ----------------------------------------------------------------------------
                                                           Hours        Hours 
                         --------- Hours Full --------   Above Full   Capacity
  Conduit                Both Ends  Upstream  Dnstream   Normal Flow   Limited
  ----------------------------------------------------------------------------
  C2                          3.58      3.58      3.58      3.58         3.58
  C3                         10.75     10.75     10.75     10.75        10.75
  C4                         10.92     10.92     10.92     10.92        10.92
  C5                         10.92     10.92     10.92     10.92        10.92
  C6                         10.92     10.92     10.92     10.92        10.92
  C7                         10.92     10.92     10.92     10.92        10.92
  C8                         10.92     10.92     10.92     10.92        10.92
  C9                         10.92     10.92     10.92     10.92        10.92
  C10                        10.92     10.92     10.92     10.92        10.92
  C11                        10.92     10.92     10.92     10.92        10.92
  C12                        10.92     10.92     10.92     10.92        10.92
  C17                         3.33      3.33      3.33      3.33         3.33
  C18                        10.83     10.83     10.83     10.83        10.83
  C19                        10.83     10.83     10.83     10.83        10.83
  C20                        10.92     10.92     10.92     10.92        10.92
  C21                        10.92     10.92     10.92     10.92        10.92
  C22                        10.92     10.92     10.92     10.92        10.92
  C23                        10.92     10.92     10.92     10.92        10.92
  C24                        10.92     10.92     10.92     10.92        10.92
  C29                         2.17      2.17      2.17      2.17         2.17
  C34                        10.67     10.67     10.67     10.67        10.67
  

  Analysis begun on:  Sat Jun 17 20:41:19 2023
  Analysis ended on:  Sat Jun 17 20:41:19 2023
  Total elapsed time: < 1 sec